/batch
/config,noeldb,1     ! force off writing results to database
*get,_wallstrt,active,,time,wall
! ANSYS input file written by Workbench version 2019 R2
! File used for geometry attach: D:\PDF's\Academic\BITS\SEM I\TEP\Seminar\Design\Rotating_Disk_files\dp0\SYS\DM\SYS.scdoc
/title,Rotating_Disk--Static Structural (A5)
*DIM,_wb_ProjectScratch_dir,string,248
_wb_ProjectScratch_dir(1) = 'D:\PDF's\Academic\BITS\SEM I\TEP\Seminar\Design\_ProjectScratch\Scr7EFB\'
*DIM,_wb_SolverFiles_dir,string,248
_wb_SolverFiles_dir(1) = 'D:\PDF's\Academic\BITS\SEM I\TEP\Seminar\Design\Rotating_Disk_files\dp0\SYS\MECH\'
*DIM,_wb_userfiles_dir,string,248
_wb_userfiles_dir(1) = 'D:\PDF's\Academic\BITS\SEM I\TEP\Seminar\Design\Rotating_Disk_files\user_files\'
/com,--- Data in consistent NMM units. See Solving Units in the help system for more information.
/units,MPA
/nopr
/wb,file,start              !  signify a WB generated input file
/prep7
! Turn off shape checking because checks already performed inside WB mesher.
! See help system for more information.
SHPP,OFF,,NOWARN
/nolist
etcon,set             ! allow ANSYS to choose best KEYOP's for 180x elements
/com,*********** Nodes for the whole assembly ***********
nblock,3,,35152
(1i9,3e20.9e3)
        1     0.000000000E+00     5.000000000E+00     0.000000000E+00
        2     0.000000000E+00     0.000000000E+00     0.000000000E+00
        3     0.000000000E+00     4.500000000E+00     0.000000000E+00
        4     0.000000000E+00     4.000000000E+00     0.000000000E+00
        5     0.000000000E+00     3.500000000E+00     0.000000000E+00
        6     0.000000000E+00     3.000000000E+00     0.000000000E+00
        7     0.000000000E+00     2.500000000E+00     0.000000000E+00
        8     0.000000000E+00     2.000000000E+00     0.000000000E+00
        9     0.000000000E+00     1.500000000E+00     0.000000000E+00
       10     0.000000000E+00     1.000000000E+00     0.000000000E+00
       11     0.000000000E+00     5.000000000E-01     0.000000000E+00
       12     5.000000000E+02     0.000000000E+00     0.000000000E+00
       13     5.010020040E-01     0.000000000E+00     0.000000000E+00
       14     1.002004008E+00     0.000000000E+00     0.000000000E+00
       15     1.503006012E+00     0.000000000E+00     0.000000000E+00
       16     2.004008016E+00     0.000000000E+00     0.000000000E+00
       17     2.505010020E+00     0.000000000E+00     0.000000000E+00
       18     3.006012024E+00     0.000000000E+00     0.000000000E+00
       19     3.507014028E+00     0.000000000E+00     0.000000000E+00
       20     4.008016032E+00     0.000000000E+00     0.000000000E+00
! ... 31938 like lines cut
/wb,elem,start            !  set before creation of elements
/com,*********** Elements for Body 1 "SYS\Surface" ***********
et,1,183
keyo,1,3,1
eblock,19,solid,,9980
(19i9)
        1        1        1        1        0        0        0        0        8        0        1     3329    10128     9713     2017    19099    31477    15020    15019
        1        1        1        1        0        0        0        0        8        0        2     2017     2581     4099     3329    15018    17050    19097    15019
        1        1        1        1        0        0        0        0        8        0        3     9713    10195    10530     2017    31478    31732    15021    15020
        1        1        1        1        0        0        0        0        8        0        4    10530     4100     2581     2017    21068    17051    15018    15021
        1        1        1        1        0        0        0        0        8        0        5    10128     3328     2018     9713    19096    15022    15024    31477
        1        1        1        1        0        0        0        0        8        0        6     3328    10090    10958     2018    19095    31641    15025    15022
        1        1        1        1        0        0        0        0        8        0        7    10958    10361     3330     2018    31900    19102    15023    15025
        1        1        1        1        0        0        0        0        8        0        8     2018     3330    10195     9713    15023    19101    31478    15024
        1        1        1        1        0        0        0        0        8        0        9    10090     3327     2019    10958    19092    15026    15029    31641
        1        1        1        1        0        0        0        0        8        0       10     3327    10211    10904     2019    19093    31748    15028    15026
        1        1        1        1        0        0        0        0        8        0       11    10904     9927     3331     2019    31608    19104    15027    15028
        1        1        1        1        0        0        0        0        8        0       12     2019     3331    10361    10958    15027    19105    31900    15029
        1        1        1        1        0        0        0        0        8        0       13    10211     3326     2020    10904    19089    15030    15033    31748
        1        1        1        1        0        0        0        0        8        0       14     3326    10832    10326     2020    19090    31863    15032    15030
        1        1        1        1        0        0        0        0        8        0       15    10326    10833     3332     2020    31864    19108    15031    15032
        1        1        1        1        0        0        0        0        8        0       16     2020     3332     9927    10904    15031    19107    31608    15033
        1        1        1        1        0        0        0        0        8        0       17    10832     3325     2021    10326    19087    15034    15036    31863
        1        1        1        1        0        0        0        0        8        0       18     3325     9833    10959     2021    19086    31484    15037    15034
        1        1        1        1        0        0        0        0        8        0       19    10959    10378     3333     2021    31907    19110    15035    15037
        1        1        1        1        0        0        0        0        8        0       20     2021     3333    10833    10326    15035    19111    31864    15036
! ... 9961 like lines cut
!Material Id = {994D13E5-1900-49EE-987A-3CAA8DEFCA12}
/wb,elem,end               !  done creating elements
/com,*********** Send User Defined Coordinate System(s) ***********
csys,0
toffst,273.15,  ! Temperature offset from absolute zero
/com,*********** Set Reference Temperature ***********
tref,22.
/wb,mat,start              !  starting to send materials
/com,*********** Send Materials ***********
MP,DENS,1,7.85e-09,	! tonne mm^-3
MP,C,1,434000000,	! mm^2 s^-2 C^-1
MP,EX,1,200000,	! tonne s^-2 mm^-1
MP,NUXY,1,0.3,

TB,BISO,1,1,
TBDATA,1,250,1450

/wb,mat,end                !  done sending materials
/com,*********** Send Sheet Properties ***********
!************************* Model Summary ********************
!SYS\Surface,	Structural Steel NL,	matid,	1
!************************* End Model Summary ********************
! get the diagonal of the bounding box. Needed later for other things
*get,_xmin,node,,mnloc,x
*get,_ymin,node,,mnloc,y
*get,_zmin,node,,mnloc,z
*get,_xmax,node,,mxloc,x
*get,_ymax,node,,mxloc,y
*get,_zmax,node,,mxloc,z
_ASMDIAG=(_xmax-_xmin)*(_xmax-_xmin)+(_ymax-_ymin)*(_ymax-_ymin)+(_zmax-_zmin)*(_zmax-_zmin)
_ASMDIAG=SQRT(_ASMDIAG)
/wb,contact,start          !  starting to send contact
/wb,contact,end            !  done creating contacts
/golist
/wb,load,start             !  starting to send loads
/com,*********** Fixed Supports ***********
CMBLOCK,_FIXEDSU,NODE,        1
(8i10)
         2
cmsel,s,_FIXEDSU
d,all,all
nsel,all
/com,*********** Define Rotational Velocity ***********
cglo,0.,2.49999994412065,0.
tblist
/gst,on,on
fini
*get,_numnode,node,0,count
*get,_numelem,elem,0,count
*get, _MAXELEMNUM, elem, 0, NUM, MAX
*get, _MAXNODENUM, node, 0, NUM, MAX
*get, _MAXELEMTYPE, etyp, 0, NUM, MAX
*get, _MAXREALCONST, real, 0, NUM, MAX
/go
/wb,load,end               !  done creating loads
/com,--- Number of total nodes = %_numnode%
/com,--- Number of contact elements = 0
/com,--- Number of spring elements = 0
/com,--- Number of bearing elements = 0
/com,--- Number of solid elements = 9980
/com,--- Number of condensed parts = 0
/com,--- Number of total elements = %_numelem%
*get,_wallbsol,active,,time,wall
/com,****************************************************************************
/com,*************************    SOLUTION       ********************************
/com,****************************************************************************
/solu
antype,0                   ! static analysis
nlgeom,on                  ! Turn on Large Deformation Effects
eqsl,sparse,,,,,1
cntr,print,1               ! print out contact info and also make no initial contact an error
dmpoption,emat,no             ! Don't combine emat file for DANSYS
dmpoption,esav,no             ! Don't combine esav file for DANSYS
nldiag,cont,iter           ! print out contact info each equilibrium iteration
rescontrol,define,last,last,,dele	   ! Program Controlled
/com,****************************************************
/com,******************* SOLVE FOR LS 1 OF 1 ****************
cgom,0.0,555.7
/nopr
/gopr
autots,on                  ! Workbench Program Controlled automatic time stepping
nsub,5,1000,1              ! due to presence of nonlinear materials
time,1.
outres,erase
outres,all,none
outres,nsol,all,
outres,rsol,all
outres,eangl,all
outres,etmp,all
outres,veng,all
outres,strs,all,
outres,epel,all,
outres,eppl,all,
outres,cont,all,
! *********** WB SOLVE COMMAND ***********
! check interactive state
*get,ANSINTER_,active,,int
*if,ANSINTER_,ne,0,then
/eof
*endif
solve
/com *************** Write FE CONNECTORS ********* 
CEWRITE,file,ce,,INTE
/com,****************************************************
/com,*************** FINISHED SOLVE FOR LS 1 *************
*get,_wallasol,active,,time,wall
/nopr
*get,_numnode,node,0,count
*get,_numelem,elem,0,count
*get, _MAXELEMNUM, elem, 0, NUM, MAX
*get, _MAXNODENUM, node, 0, NUM, MAX,,,INTERNAL
*get, _MAXELEMTYPE, etyp, 0, NUM, MAX
*get, _MAXREALCONST, real, 0, NUM, MAX
/gopr
/post1
xmlo,ENCODING,ISO-8859-1
xmlo,parm
/xml,parm,xml
fini
/gopr
*get,_walldone,active,,time,wall
_preptime=(_wallbsol-_wallstrt)*3600
_solvtime=(_wallasol-_wallbsol)*3600
_posttime=(_walldone-_wallasol)*3600
_totaltim=(_walldone-_wallstrt)*3600
*get,_dlbratio,active,0,solu,dlbr
/com,--- Number of total nodes = %_numnode%
/com,--- Number of total elements = %_numelem%
/com,--- Element load balance ratio = %_dlbratio%
/wb,file,end               ! done with WB generated input
